begin options
{% if continue is defined %}  continue
{% endif %}
{%- if nocheck is defined %}  nocheck
{% endif %}
{%- if memory_print_option is defined %}  memory_print_option {{memory_print_option}}
{% endif -%}
{%- if domain_decomposition is defined %}  domain_decomposition {{domain_decomposition}}
{% endif -%}
end options

begin timing
  tdis6 {{tdis6}}
end timing

begin models
{%- if models_is_file is defined %}
  open/close {{models}}
{%- else %}
  {{models}}
{%- endif %}
end models

begin exchanges
{% if exchanges is defined %}  open/close {{exchanges}}
{% endif -%}
end exchanges

{% for solutiongroup in solutiongroups -%}
begin solutiongroup {{loop.index}}
{% if mxiter is defined %}  mxiter {{mxiter}}
{% endif -%}
{%- if filein is defined -%}
{% for slntype, slnfname, solmodels in solutiongroup %}  {{slntype}} {{slnfname}} filein {{solmodels}}
{% endfor -%}
{% else -%}
{% for slntype, slnfname, slnmnames in solutiongroup %}  {{slntype}} {{slnfname}} {{slnmnames|join(' ')}}
{% endfor -%}
{% endif -%}
end solutiongroup

{% endfor %}
